
  Mrv0541 04191212112D

 37 40  0  0  1  0            999 V2000
   14.4461   -6.8427    0.0000 N   0  0  0  0  0  0  0  0  0  0  0  0
   15.2307   -5.7629    0.0000 S   0  0  0  0  0  0  0  0  0  0  0  0
   16.4301   -6.8427    0.0000 C   0  0  0  0  0  0  0  0  0  0  0  0
   15.7156   -6.4303    0.0000 C   0  0  0  0  0  0  0  0  0  0  0  0
   16.4301   -6.0178    0.0000 C   0  0  0  0  0  0  0  0  0  0  0  0
   15.2307   -7.0977    0.0000 C   0  0  2  0  0  0  0  0  0  0  0  0
   16.2926   -8.0538    0.0000 O   0  0  0  0  0  0  0  0  0  0  0  0
   15.4856   -7.8823    0.0000 C   0  0  0  0  0  0  0  0  0  0  0  0
   14.9336   -8.4954    0.0000 O   0  0  0  0  0  0  0  0  0  0  0  0
   13.6211   -6.0178    0.0000 C   0  0  2  0  0  0  0  0  0  0  0  0
   12.9067   -5.6053    0.0000 N   0  0  0  0  0  0  0  0  0  0  0  0
   12.1922   -6.0178    0.0000 C   0  0  0  0  0  0  0  0  0  0  0  0
   12.1922   -6.8427    0.0000 O   0  0  0  0  0  0  0  0  0  0  0  0
   11.4778   -5.6053    0.0000 C   0  0  1  0  0  0  0  0  0  0  0  0
   13.6211   -6.8427    0.0000 C   0  0  0  0  0  0  0  0  0  0  0  0
   13.0378   -7.4261    0.0000 O   0  0  0  0  0  0  0  0  0  0  0  0
   14.4461   -6.0178    0.0000 C   0  0  2  0  0  0  0  0  0  0  0  0
   14.4461   -5.1928    0.0000 H   0  0  0  0  0  0  0  0  0  0  0  0
   11.4779   -4.7803    0.0000 C   0  0  0  0  0  0  0  0  0  0  0  0
   10.7633   -6.0178    0.0000 N   0  0  0  0  0  0  0  0  0  0  0  0
   11.4779   -3.1303    0.0000 C   0  0  0  0  0  0  0  0  0  0  0  0
   10.7634   -3.5428    0.0000 C   0  0  0  0  0  0  0  0  0  0  0  0
   10.7634   -4.3678    0.0000 C   0  0  0  0  0  0  0  0  0  0  0  0
   12.1924   -4.3678    0.0000 C   0  0  0  0  0  0  0  0  0  0  0  0
   12.1924   -3.5428    0.0000 C   0  0  0  0  0  0  0  0  0  0  0  0
   10.0489   -5.6053    0.0000 C   0  0  0  0  0  0  0  0  0  0  0  0
   10.0489   -4.7803    0.0000 O   0  0  0  0  0  0  0  0  0  0  0  0
    9.3344   -6.0178    0.0000 N   0  0  0  0  0  0  0  0  0  0  0  0
    8.6199   -5.6053    0.0000 C   0  0  0  0  0  0  0  0  0  0  0  0
    7.9054   -6.0178    0.0000 C   0  0  0  0  0  0  0  0  0  0  0  0
    7.9054   -6.8428    0.0000 N   0  0  0  0  0  0  0  0  0  0  0  0
    8.6199   -7.2553    0.0000 C   0  0  0  0  0  0  0  0  0  0  0  0
    9.3344   -6.8428    0.0000 C   0  0  0  0  0  0  0  0  0  0  0  0
    8.6199   -4.7803    0.0000 O   0  0  0  0  0  0  0  0  0  0  0  0
    7.1910   -5.6053    0.0000 O   0  0  0  0  0  0  0  0  0  0  0  0
    7.1910   -7.2553    0.0000 C   0  0  0  0  0  0  0  0  0  0  0  0
    6.4765   -6.8428    0.0000 C   0  0  0  0  0  0  0  0  0  0  0  0
 17 10  1  0  0  0  0
 10 15  1  0  0  0  0
 15  1  1  0  0  0  0
  1  6  1  0  0  0  0
 17  1  1  0  0  0  0
  2 17  1  0  0  0  0
  2  4  1  0  0  0  0
  6  4  1  0  0  0  0
  4  3  1  0  0  0  0
  4  5  1  0  0  0  0
  6  8  1  6  0  0  0
  8  7  1  0  0  0  0
  8  9  2  0  0  0  0
 10 11  1  1  0  0  0
 11 12  1  0  0  0  0
 12 14  1  0  0  0  0
 12 13  2  0  0  0  0
 15 16  2  0  0  0  0
 17 18  1  6  0  0  0
 14 19  1  6  0  0  0
 14 20  1  0  0  0  0
 23 19  2  0  0  0  0
 19 24  1  0  0  0  0
 21 22  2  0  0  0  0
 22 23  1  0  0  0  0
 24 25  2  0  0  0  0
 21 25  1  0  0  0  0
 20 26  1  0  0  0  0
 26 27  2  0  0  0  0
 26 28  1  0  0  0  0
 33 28  1  0  0  0  0
 29 28  1  0  0  0  0
 29 30  1  0  0  0  0
 30 31  1  0  0  0  0
 31 32  1  0  0  0  0
 32 33  1  0  0  0  0
 29 34  2  0  0  0  0
 30 35  2  0  0  0  0
 31 36  1  0  0  0  0
 36 37  1  0  0  0  0
M  END
> <DATABASE_ID>
DB00319

> <DATABASE_NAME>
drugbank

> <SMILES>
[H][C@]12SC(C)(C)[C@@H](N1C(=O)[C@H]2NC(=O)[C@H](NC(=O)N1CCN(CC)C(=O)C1=O)C1=CC=CC=C1)C(O)=O

> <INCHI_IDENTIFIER>
InChI=1S/C23H27N5O7S/c1-4-26-10-11-27(19(32)18(26)31)22(35)25-13(12-8-6-5-7-9-12)16(29)24-14-17(30)28-15(21(33)34)23(2,3)36-20(14)28/h5-9,13-15,20H,4,10-11H2,1-3H3,(H,24,29)(H,25,35)(H,33,34)/t13-,14-,15+,20-/m1/s1

> <INCHI_KEY>
InChIKey=IVBHGBMCVLDMKU-GXNBUGAJSA-N

> <JCHEM_ACCEPTOR_COUNT>
7

> <JCHEM_AVERAGE_POLARIZABILITY>
51.770624623707036

> <JCHEM_BIOAVAILABILITY>
1

> <JCHEM_DONOR_COUNT>
3

> <JCHEM_EXACT_MASS>
517.163118933

> <JCHEM_FORMAL_CHARGE>
0

> <JCHEM_FORMULA>
C23H27N5O7S

> <JCHEM_GHOSE_FILTER>
0

> <JCHEM_IUPAC>
(2S,5R,6R)-6-[(2R)-2-{[(4-ethyl-2,3-dioxopiperazin-1-yl)carbonyl]amino}-2-phenylacetamido]-3,3-dimethyl-7-oxo-4-thia-1-azabicyclo[3.2.0]heptane-2-carboxylic acid

> <ALOGPS_LOGP>
0.67

> <JCHEM_LOGP>
-0.2584901896666671

> <ALOGPS_LOGS>
-3.64

> <JCHEM_MASS>
517.555

> <JCHEM_MDDR_LIKE_RULE>
1

> <JCHEM_NUMBER_OF_RINGS>
4

> <JCHEM_PHYSIOLOGICAL_CHARGE>
-1

> <JCHEM_PKA>
11.595441870353845

> <JCHEM_PKA_STRONGEST_ACIDIC>
3.4850654965939314

> <JCHEM_PKA_STRONGEST_BASIC>
-4.256401656507363

> <JCHEM_POLAR_SURFACE_AREA>
156.42999999999998

> <JCHEM_REFRACTIVITY>
126.29669999999999

> <JCHEM_ROTATABLE_BOND_COUNT>
6

> <JCHEM_RULE_OF_FIVE>
0

> <ALOGPS_SOLUBILITY>
1.19e-01 g/l

> <JCHEM_TRADITIONAL_IUPAC>
(2S,5R,6R)-6-[(2R)-2-[(4-ethyl-2,3-dioxopiperazin-1-yl)carbonylamino]-2-phenylacetamido]-3,3-dimethyl-7-oxo-4-thia-1-azabicyclo[3.2.0]heptane-2-carboxylic acid

> <JCHEM_VEBER_RULE>
0

> <DRUGBANK_ID>
DB00319

> <DRUG_GROUPS>
approved

> <GENERIC_NAME>
Piperacillin

> <SYNONYMS>
Piperacilina; Piperacillin; Piperacillin Anhydrous; Piperacillina; PipÃ©racilline; Piperacillinum

> <BRANDS>
Ecosette; Farecillin; Penmalin; Pentcillin; Peracin; Piciliant; Picillin; Picillina; Piperac; Pipracil; Stepten; Tronazam

> <SALTS>
Piperacillin Sodium
